Circuit: * C:\Monash\Monash2026\FYP\sims\I2C\I2C_External_Bi.asc

Warning: Multiple definitions of model "2scr375p" Type: BJT
Warning: Multiple definitions of model "bc857b" Type: BJT
Warning: Multiple definitions of model "bc847c" Type: BJT
Warning: Multiple definitions of model "bc847b" Type: BJT
WARNING: Less than two connections to node NC_01.  This node is used by R8.
WARNING: Less than two connections to node NC_02.  This node is used by R4.
Instance "m:u1:2": Length shorter than recommended for a level 3 MOSFET.
Instance "m:u2:2": Length shorter than recommended for a level 3 MOSFET.
Direct Newton iteration for .op point succeeded.
Heightened Def Con from 3.001e-006 to 3.001e-006

Date: Tue Apr 21 17:44:04 2026
Total elapsed time: 0.207 seconds.

tnom = 27
temp = 27
method = modified trap
totiter = 34635
traniter = 34625
tranpoints = 12474
accept = 10053
rejected = 2422
matrix size = 43
fillins = 1
solver = Normal
Matrix Compiler1: 2.91 KB object code size  0.3/0.2/[0.1]
Matrix Compiler2: off  [0.2]/0.3/0.2

