Circuit: * C:\Monash\Monash2026\FYP\sims\I2C\I2C_External.asc

Warning: Multiple definitions of model "2scr375p" Type: BJT
Warning: Multiple definitions of model "bc857b" Type: BJT
Warning: Multiple definitions of model "bc847c" Type: BJT
Warning: Multiple definitions of model "bc847b" Type: BJT
WARNING: Node N011 is floating.
WARNING: Node N007 is floating.

WARNING: Less than two connections to node NC_01.  This node is used by R8.
WARNING: Less than two connections to node NC_02.  This node is used by R4.
WARNING: Less than two connections to node N011.  This node is used by C1.
WARNING: Less than two connections to node N007.  This node is used by C2.
Instance "m:u2:2": Length shorter than recommended for a level 3 MOSFET.
Direct Newton iteration for .op point succeeded.
Heightened Def Con from 8.1001e-005 to 8.1001e-005

Date: Tue Apr 21 16:21:26 2026
Total elapsed time: 0.470 seconds.

tnom = 27
temp = 27
method = modified trap
totiter = 35087
traniter = 35077
tranpoints = 12641
accept = 10104
rejected = 2538
matrix size = 41
fillins = 1
solver = Normal
Matrix Compiler1: 2.24 KB object code size  0.7/0.4/[0.3]
Matrix Compiler2: 3.07 KB object code size  0.4/0.6/[0.4]

