Circuit: * C:\GitHub\Monash2026\FYP\sims\AnalogueOutput.asc

Direct Newton iteration for .op point succeeded.
Ignoring empty pin current: Ix(u1:1)
Ignoring empty pin current: Ix(u1:1)

Date: Mon Apr 27 22:32:17 2026
Total elapsed time: 0.159 seconds.

tnom = 27
temp = 27
method = modified trap
totiter = 2089
traniter = 2082
tranpoints = 1042
accept = 1042
rejected = 0
matrix size = 8
fillins = 2
solver = Normal
Matrix Compiler1: 786 bytes object code size  0.2/0.1/[0.1]
Matrix Compiler2: 858 bytes object code size  0.1/0.1/[0.1]

