Missing ".ends" statement in file "BZT52C12.lib"
Missing ".ends" statement in file "BZT52C30.lib"
Circuit: * C:\Monash\Monash2026\FYP\sims\Digital Input\DigitalInput.asc

Direct Newton iteration for .op point succeeded.

Date: Fri Apr 03 11:16:06 2026
Total elapsed time: 0.526 seconds.

tnom = 27
temp = 27
method = modified trap
totiter = 13403
traniter = 13353
tranpoints = 5445
accept = 3925
rejected = 1520
matrix size = 221
fillins = 162
solver = Normal
Matrix Compiler1: 15.74 KB object code size  8.2/5.4/[2.8]
Matrix Compiler2: 19.20 KB object code size  4.0/6.0/[1.6]

