Missing ".ends" statement in file "BZT52C30.lib"
Circuit: * C:\Monash\Monash2026\FYP\sims\Digital Input\DigitalInputCallum.asc

Direct Newton iteration for .op point succeeded.
Heightened Def Con from 3.78848e-007 to 3.81848e-007

Date: Sat Apr 04 12:22:22 2026
Total elapsed time: 1.027 seconds.

tnom = 27
temp = 27
method = modified trap
totiter = 29812
traniter = 29766
tranpoints = 9030
accept = 6483
rejected = 2548
matrix size = 187
fillins = 125
solver = Normal
Matrix Compiler1: 12.49 KB object code size  5.3/3.0/[1.4]
Matrix Compiler2: 16.40 KB object code size  2.7/8.4/[1.2]

