Missing ".ends" statement in file "BZT52C30.lib"
Circuit: * C:\GitHub\Monash2026\FYP\sims\Digital Input\DigitalInputCallum.asc

Direct Newton iteration for .op point succeeded.
Heightened Def Con from 1.74379e-008 to 2.04379e-008

Date: Fri Apr 17 18:13:26 2026
Total elapsed time: 0.231 seconds.

tnom = 27
temp = 27
method = modified trap
totiter = 7252
traniter = 7206
tranpoints = 3433
accept = 2544
rejected = 890
matrix size = 187
fillins = 125
solver = Normal
Thread vector: 9.0/6.8[4] 6.3/3.3[4] 2.4/1.6[4] 0.4/1.5[1]  2592/500
Matrix Compiler1:     735 opcodes  2.4/[1.3]/1.5
Matrix Compiler2: 16.40 KB object code size  1.0/1.9/[0.8]

