Missing ".ends" statement in file "BZT52C30.lib"
Circuit: * C:\GitHub\Monash2026\FYP\sims\Digital Input\DigitalInputCallumV2.asc

Direct Newton iteration for .op point succeeded.

Date: Fri Apr 17 19:56:07 2026
Total elapsed time: 0.161 seconds.

tnom = 27
temp = 27
method = modified trap
totiter = 5794
traniter = 5748
tranpoints = 2503
accept = 2002
rejected = 501
matrix size = 187
fillins = 130
solver = Normal
Thread vector: 6.2/3.7[4] 2.5/1.6[4] 1.7/1.0[4] 0.4/0.5[1]  2592/500
Matrix Compiler1: 12.71 KB object code size  2.4/1.1/[1.1]
Matrix Compiler2: 16.48 KB object code size  1.0/1.8/[0.8]

